Version 4
SHEET 1 2056 1660
WIRE -352 -976 -672 -976
WIRE 352 -976 -352 -976
WIRE 1392 -976 944 -976
WIRE 1696 -976 1392 -976
WIRE 352 -928 352 -976
WIRE 944 -928 944 -976
WIRE 304 -848 192 -848
WIRE 896 -848 816 -848
WIRE -352 -800 -352 -976
WIRE -672 -784 -672 -976
WIRE 1392 -784 1392 -976
WIRE 1696 -784 1696 -976
WIRE 352 -752 352 -832
WIRE 352 -752 224 -752
WIRE 656 -752 352 -752
WIRE 944 -752 944 -832
WIRE 944 -752 736 -752
WIRE 1056 -752 944 -752
WIRE 352 -672 352 -752
WIRE 944 -672 944 -752
WIRE 304 -592 176 -592
WIRE 896 -592 816 -592
WIRE -672 -480 -672 -704
WIRE -352 -480 -352 -736
WIRE -352 -480 -672 -480
WIRE 352 -480 352 -576
WIRE 352 -480 -352 -480
WIRE 944 -480 944 -576
WIRE 944 -480 352 -480
WIRE 1392 -480 1392 -720
WIRE 1392 -480 944 -480
WIRE 1696 -480 1696 -704
WIRE 1696 -480 1392 -480
WIRE -672 -432 -672 -480
WIRE 320 -176 320 -256
WIRE 416 -176 320 -176
WIRE 544 -176 480 -176
WIRE 320 -48 320 -176
WIRE 432 -48 320 -48
WIRE 768 0 656 0
WIRE 320 32 320 -48
WIRE 432 32 432 -48
WIRE 544 32 544 -176
WIRE 656 32 656 0
WIRE 768 32 768 0
WIRE 32 112 0 112
WIRE 224 112 32 112
WIRE 1040 112 832 112
WIRE 1104 112 1040 112
WIRE 32 192 32 112
WIRE 1040 192 1040 112
WIRE 224 224 144 224
WIRE 928 224 832 224
WIRE 32 336 32 256
WIRE 32 336 0 336
WIRE 224 336 32 336
WIRE 1040 336 1040 256
WIRE 1040 336 832 336
WIRE 1120 336 1040 336
WIRE 224 448 128 448
WIRE 960 448 832 448
WIRE 160 560 112 560
WIRE 224 560 160 560
WIRE 896 560 832 560
WIRE 992 560 896 560
WIRE 1008 560 992 560
WIRE 160 576 160 560
WIRE 992 592 992 560
WIRE 896 624 896 560
WIRE 896 624 832 624
WIRE 160 704 160 656
WIRE 160 704 48 704
WIRE 224 704 160 704
WIRE 992 704 992 672
WIRE 992 704 832 704
WIRE 48 720 48 704
WIRE 144 848 144 816
WIRE 928 1040 832 1040
WIRE 1056 1040 928 1040
WIRE 928 1056 928 1040
WIRE 928 1152 928 1136
WIRE 928 1152 832 1152
WIRE 224 1264 160 1264
WIRE 160 1376 160 1264
WIRE 224 1376 160 1376
WIRE 896 1376 832 1376
WIRE 1168 1376 896 1376
WIRE 1264 1376 1168 1376
WIRE 1168 1520 1168 1440
WIRE 1264 1536 1264 1440
FLAG -672 -432 0
FLAG 224 -752 SW1
FLAG 1056 -752 SW2
FLAG 1120 336 SW2
FLAG 0 336 SW1
FLAG 144 848 0
FLAG 192 -848 TG1
FLAG 144 224 TG1
FLAG 816 -848 TG2
FLAG 928 224 TG2
FLAG 176 -592 BG1
FLAG 128 448 BG1
FLAG 816 -592 BG2
FLAG 960 448 BG2
FLAG 1696 -976 Vout
FLAG -672 -976 Vin
FLAG 112 560 Vin
FLAG 896 1440 0
FLAG 1168 1520 Boost1
FLAG 0 112 Boost1
FLAG 1264 1536 Boost2
FLAG 1104 112 Boost2
FLAG 1008 560 Vout
FLAG 992 784 0
FLAG 528 1456 0
FLAG 160 1152 0
FLAG 48 800 0
FLAG 832 928 0
FLAG 832 1264 0
FLAG 1120 1040 0
FLAG 320 -256 SW1
FLAG 544 -256 SW2
FLAG 16 1376 0
FLAG 768 0 0
SYMBOL PowerProducts\\LTC7878 224 32 R0
SYMATTR InstName U1
SYMBOL voltage -672 -800 R0
WINDOW 123 0 0 Left 0
WINDOW 39 0 0 Left 0
SYMATTR InstName Vfuelcell
SYMATTR Value 20
SYMBOL cap -368 -800 R0
SYMATTR InstName Cin
SYMATTR Value 0.0005
SYMATTR SpiceLine Irms=10 Rser=5m
SYMBOL ind 640 -736 R270
WINDOW 0 32 56 VTop 2
WINDOW 3 5 56 VBottom 2
SYMATTR InstName L1
SYMATTR Value 8µ
SYMATTR SpiceLine Rser=2.5m
SYMBOL nmos 304 -928 R0
SYMATTR InstName M1
SYMATTR Value BSC028N06LS3
SYMBOL nmos 304 -672 R0
SYMATTR InstName M2
SYMATTR Value BSC028N06LS3
SYMBOL nmos 896 -672 R0
SYMATTR InstName M3
SYMATTR Value BSC0904NSI
SYMBOL nmos 896 -928 R0
SYMATTR InstName M4
SYMATTR Value BSC0904NSI
SYMBOL cap 1376 -784 R0
SYMATTR InstName Cout
SYMATTR Value 500µ
SYMATTR SpiceLine Rser=5m
SYMBOL res 1680 -800 R0
SYMATTR InstName Rload
SYMATTR Value 1
SYMBOL res 240 800 R90
WINDOW 0 0 56 VBottom 2
WINDOW 3 32 56 VTop 2
SYMATTR InstName Rfreq
SYMATTR Value 68k
SYMBOL cap 880 1376 R0
SYMATTR InstName Cdrvcc
SYMATTR Value 4.7µ
SYMBOL cap 16 192 R0
SYMATTR InstName Cboot1
SYMATTR Value 1µ
SYMBOL cap 1024 192 R0
SYMATTR InstName Cboot2
SYMATTR Value 1µ
SYMBOL res 976 576 R0
SYMATTR InstName Rfbt
SYMATTR Value 460k
SYMBOL res 976 688 R0
SYMATTR InstName Rfbb
SYMATTR Value 20k
SYMBOL res 144 560 R0
SYMATTR InstName Rrunt
SYMATTR Value 210k
SYMBOL res 32 704 R0
SYMATTR InstName Rrunb
SYMATTR Value 20k
SYMBOL cap 224 1136 R90
WINDOW 0 0 32 VBottom 2
WINDOW 3 32 32 VTop 2
SYMATTR InstName Css
SYMATTR Value 7.5n
SYMBOL res 912 1040 R0
SYMATTR InstName Rpgood
SYMATTR Value 20k
SYMBOL cap 1120 1024 R90
WINDOW 0 0 32 VBottom 2
WINDOW 3 32 32 VTop 2
SYMATTR InstName Cintvcc
SYMATTR Value 4.7µ
SYMBOL cap 480 -192 R90
WINDOW 0 0 32 VBottom 2
WINDOW 3 32 32 VTop 2
SYMATTR InstName Cs
SYMATTR Value 47n
SYMBOL res 528 -272 R0
SYMATTR InstName Rs
SYMATTR Value 68k
SYMBOL schottky 1152 1376 R0
SYMATTR InstName Dboot1
SYMATTR Value RB578VAM100
SYMBOL schottky 1248 1376 R0
SYMATTR InstName Dboot2
SYMATTR Value RB578VAM100
SYMBOL res 176 1360 R90
WINDOW 0 0 56 VBottom 2
WINDOW 3 32 56 VTop 2
SYMATTR InstName Rth
SYMATTR Value 5k
SYMBOL cap 80 1360 R90
WINDOW 0 0 32 VBottom 2
WINDOW 3 32 32 VTop 2
SYMATTR InstName Cth
SYMATTR Value 10n
TEXT 1864 904 Left 2 !.tran 5m startup
